
%%%%%%%%%%%%%%%%%%%%%%%%%%%%%%%%%%%%%%%%%%%%%%%%%%%%%%%%%%%%%%%%%%%%%%%%%%%%%%%%
%                                                                              %
% SU2 configuration file                                                       %
% Case description: VERIFICATION & VALIDATION CRMHL-WB NASA TMR TESTCASE       %
% Author: ___________________________________________________________________  %
% Institution: ______________________________________________________________  %
% Date: __________                                                             %
% File Version 8.1.0 "Harrier"                                                 %
%                                                                              %
%%%%%%%%%%%%%%%%%%%%%%%%%%%%%%%%%%%%%%%%%%%%%%%%%%%%%%%%%%%%%%%%%%%%%%%%%%%%%%%%

% ------------- DIRECT, ADJOINT, AND LINEARIZED PROBLEM DEFINITION ------------%
%
% Solver type (EULER, NAVIER_STOKES, RANS,
%              INC_EULER, INC_NAVIER_STOKES, INC_RANS,
%              NEMO_EULER, NEMO_NAVIER_STOKES,
%              FEM_EULER, FEM_NAVIER_STOKES, FEM_RANS, FEM_LES,
%              HEAT_EQUATION_FVM, ELASTICITY)
SOLVER= RANS
MATH_PROBLEM= DIRECT
RESTART_SOL= YES
DISCARD_INFILES= NO
SYSTEM_MEASUREMENTS= SI

KIND_TURB_MODEL= SA % (NONE, SA, SST)
SA_OPTIONS= NEGATIVE, QCR2000, ROTATION, EXPERIMENTAL %SA model (NEGATIVE, EDWARDS, WITHFT2, QCR2000, COMPRESSIBILITY, ROTATION, BCM, EXPERIMENTAL)
%
% ------------------------------- SOLVER CONTROL ------------------------------%
%
ITER= 100000000
CONV_FIELD= RMS_DENSITY
CONV_RESIDUAL_MINVAL= -10
CONV_STARTITER= 10
CONV_CAUCHY_ELEMS= 100
CONV_CAUCHY_EPS= 1E-10
%
% ---------------------- REFERENCE VALUE DEFINITION ---------------------------%
%
% Reference origin for moment computation (m or in)
REF_ORIGIN_MOMENT_X = 33.67786              % IN INCHES: 1325.9  
REF_ORIGIN_MOMENT_Y = 0.00                  % IN INCHES: 0       
REF_ORIGIN_MOMENT_Z = 4.51933               % IN INCHES: 177.95  
REF_LENGTH= 7.00532                         % IN INCHES: 275.8   
REF_AREA= 191.844778                        % IN INCHES: 297360.0
%
% --------------------------- VISCOSITY MODEL ---------------------------------%
%
% Viscosity model (SUTHERLAND, CONSTANT_VISCOSITY, POLYNOMIAL_VISCOSITY, FLAMELET).
VISCOSITY_MODEL= SUTHERLAND
MU_CONSTANT= 1.716E-5
MU_REF= 1.716E-5
MU_T_REF= 273.15
SUTHERLAND_CONSTANT= 110.4
%
% ---------------------------- IDEAL GAS CONSTANTS ----------------------------%
%
FLUID_MODEL= STANDARD_AIR
GAMMA_VALUE= 1.4
GAS_CONSTANT= 287.058
%
% --------------------------- THERMAL CONDUCTIVITY MODEL ----------------------%
%
CONDUCTIVITY_MODEL= CONSTANT_PRANDTL
TURBULENT_CONDUCTIVITY_MODEL= CONSTANT_PRANDTL_TURB
PRANDTL_LAM= 0.72
PRANDTL_TURB= 0.90
%
% -------------------- COMPRESSIBLE FREE-STREAM DEFINITION --------------------%
%
MACH_NUMBER= 0.2
AOA= 11
INIT_OPTION= REYNOLDS
FREESTREAM_OPTION= TEMPERATURE_FS
%FREESTREAM_PRESSURE= 101325.0
FREESTREAM_TEMPERATURE= 289.444                      %521 R
REYNOLDS_NUMBER= 5.6E6
REYNOLDS_LENGTH= 7.00532
FREESTREAM_DENSITY= 0.2104227238
FREESTREAM_VISCOSITY= 1.7955343E-5
FREESTREAM_NU_FACTOR= 3
REF_DIMENSIONALIZATION= FREESTREAM_VEL_EQ_MACH
%
% -------------------- BOUNDARY CONDITION DEFINITION --------------------------%
%
% Navier-Stokes (no-slip), constant heat flux wall  marker(s) (NONE = no marker)
% Format: ( marker name, constant heat flux (J/m^2), ... )
MARKER_SYM= (TRI_bdy3, QUAD_bdy3)
MARKER_HEATFLUX= ( TRI_bdy1, 0.0, TRI_bdy2, 0.0, TRI_bdy4, 0.0, TRI_bdy5, 0.0, \
                   TRI_bdy6, 0.0, TRI_bdy7, 0.0, TRI_bdy8, 0.0, TRI_bdy9, 0.0, TRI_bdy10, 0.0)
MARKER_FAR= ( TRI_bdy11, TRI_bdy12, TRI_bdy13, TRI_bdy14, TRI_bdy15 )

MARKER_PLOTTING = ( TRI_bdy1, TRI_bdy2, TRI_bdy4, TRI_bdy5, TRI_bdy6, TRI_bdy7, TRI_bdy8, TRI_bdy9, TRI_bdy10 )
MARKER_MONITORING = ( TRI_bdy1, TRI_bdy2, TRI_bdy4, TRI_bdy5, TRI_bdy6, TRI_bdy7, TRI_bdy8, TRI_bdy9, TRI_bdy10)
MARKER_ANALYZE_AVERAGE = MASSFLUX
%
% ------------- COMMON PARAMETERS DEFINING THE NUMERICAL METHOD ---------------%
%
NUM_METHOD_GRAD= GREEN_GAUSS % Numerical method for spatial gradients (GREEN_GAUSS, WEIGHTED_LEAST_SQUARES)
%
% CFL number (initial value for the adaptive CFL number)
CFL_NUMBER= 10.0
%
% Adaptive CFL number (NO, YES)
CFL_ADAPT= YES
%
% Parameters of the adaptive CFL number (factor-down, factor-up, CFL min value,
%                                        CFL max value, acceptable linear solver convergence)
% Local CFL increases by factor-up until max if the solution rate of change is not limited,
% and acceptable linear convergence is achieved. It is reduced if rate is limited, or if there
% is not enough linear convergence, or if the nonlinear residuals are stagnant and oscillatory.
% It is reset back to min when linear solvers diverge, or if nonlinear residuals increase too much.
CFL_ADAPT_PARAM= ( 0.95, 1.05, 0.001, 10000, 1E-4 )
%

% -------------------- FLOW NUMERICAL METHOD DEFINITION -----------------------%
%
% Convective numerical method (JST, JST_KE, JST_MAT, LAX-FRIEDRICH, ROE, AUSM,
%                              AUSMPLUSUP, AUSMPLUSUP2, AUSMPLUSM, HLLC, TURKEL_PREC,
%                              SW, MSW, FDS, SLAU, SLAU2, L2ROE, LMROE)
CONV_NUM_METHOD_FLOW= ROE
ROE_KAPPA= 0.5 % Roe coefficient
%ROE_LOW_DISSIPATION= FD

% Use the vectorized version of the selected numerical method (available for JST family and Roe).
% SU2 should be compiled for an AVX or AVX512 architecture for best performance.
% NOTE: Currently vectorization always used for schemes that support it.
USE_VECTORIZATION= YES
%
% Entropy fix coefficient (0.0 implies no entropy fixing, 1.0 implies scalar
%                          artificial dissipation)
%ENTROPY_FIX_COEFF= 0.01
%
% Higher values than 1 (3 to 4) make the global Jacobian of central schemes (compressible flow
% only) more diagonal dominant (but mathematically incorrect) so that higher CFL can be used.
%CENTRAL_JACOBIAN_FIX_FACTOR= 4.0
%
% Time discretization (RUNGE-KUTTA_EXPLICIT, EULER_IMPLICIT, EULER_EXPLICIT)
TIME_DISCRE_FLOW= EULER_IMPLICIT
%
%
% ----------- SLOPE LIMITER AND DISSIPATION SENSOR DEFINITION -----------------%
%
MUSCL_FLOW= YES
SLOPE_LIMITER_FLOW= VAN_ALBADA_EDGE
MUSCL_TURB= YES
SLOPE_LIMITER_TURB= VENKATAKRISHNAN_WANG
VENKAT_LIMITER_COEFF= 0.05

% Reference coefficient for detecting sharp edges (3.0 by default).
%REF_SHARP_EDGES = 3.0
%SENS_REMOVE_SHARP = YES
%SENS_SMOOTHING= NONE
%
% 2nd and 4th order artificial dissipation coefficients for
%     the JST method ( 0.5, 0.02 by default )
JST_SENSOR_COEFF= ( 0.5, 0.02 )

% -------------------- TURBULENT NUMERICAL METHOD DEFINITION ------------------%
%
% Convective numerical method (SCALAR_UPWIND, BOUNDED_SCALAR)
CONV_NUM_METHOD_TURB= SCALAR_UPWIND
TIME_DISCRE_TURB= EULER_IMPLICIT
CFL_REDUCTION_TURB= 0.7
%
% ------------------------ LINEAR SOLVER DEFINITION ---------------------------%
%
% Linear solver or smoother for implicit formulations:
% BCGSTAB, FGMRES, RESTARTED_FGMRES, CONJUGATE_GRADIENT (self-adjoint problems only), SMOOTHER.
LINEAR_SOLVER= FGMRES
%
% Preconditioner of the Krylov linear solver or type of smoother (ILU, LU_SGS, LINELET, JACOBI)
LINEAR_SOLVER_PREC= ILU

% Linear solver ILU preconditioner fill-in level (0 by default)
LINEAR_SOLVER_ILU_FILL_IN= 0
%
% Minimum error of the linear solver for implicit formulations
LINEAR_SOLVER_ERROR= 0.001
%
% Max number of iterations of the linear solver for the implicit formulation
LINEAR_SOLVER_ITER= 15
%

% Use a Newton-Krylov method on the flow equations, see TestCases/rans/oneram6/turb_ONERAM6_nk.cfg
% For multizone discrete adjoint it will use FGMRES on inner iterations with restart frequency
% equal to "QUASI_NEWTON_NUM_SAMPLES".
NEWTON_KRYLOV= YES
%
% Integer parameters {startup iters, precond iters, initial tolerance relaxation}.
%NEWTON_KRYLOV_IPARAM= (0, 10, 1)
%
% Double parameters {startup residual drop, precond tolerance, full tolerance residual drop, findiff step}.
%NEWTON_KRYLOV_DPARAM= (0.0, 0.01, -1.0, 1e-5)

NEWTON_KRYLOV_IPARAM= (0, 5, 1)
NEWTON_KRYLOV_DPARAM= (0.0, 1e-5, -1.0, 1e-3)
% -------------------------- MULTIGRID PARAMETERS -----------------------------%
%
MGLEVEL= 0 %(0 = no multi-grid ; 0-3)
MGCYCLE= V_CYCLE %(V_CYCLE, W_CYCLE, FULLMG_CYCLE)
MG_PRE_SMOOTH= ( 1, 2, 3, 3 ) % Multi-grid pre-smoothing level
MG_POST_SMOOTH= ( 1, 1, 1, 1 ) % Multi-grid post-smoothing level
MG_CORRECTION_SMOOTH= ( 1, 1, 1, 1 ) % Jacobi implicit smoothing of the correction
MG_DAMP_RESTRICTION= 0.9 % Damping factor for the residual restriction
MG_DAMP_PROLONGATION= 0.9 % Damping factor for the correction prolongation
%
% ------------------------- SCREEN/HISTORY VOLUME OUTPUT --------------------------%
%
SCREEN_OUTPUT=  (INNER_ITER, WALL_TIME, RMS_DENSITY, RMS_MOMENTUM-X, RMS_MOMENTUM-Y, RMS_MOMENTUM-Z, RMS_ENERGY, RMS_NU_TILDE, LIFT, DRAG, AVG_CFL, LINSOL_ITER, LINSOL_RESIDUAL, LINSOL_ITER_TURB, LINSOL_RESIDUAL_TURB)
HISTORY_OUTPUT= (INNER_ITER, WALL_TIME, RMS_DENSITY, RMS_MOMENTUM-X, RMS_MOMENTUM-Y, RMS_MOMENTUM-Z, RMS_ENERGY, RMS_NU_TILDE, AERO_COEFF, FLOW_COEFF, LIN_ITER, LINSOL_RESIDUAL, LINSOL_ITER_TURB, LINSOL_RESIDUAL_TURB)
SCREEN_WRT_FREQ_INNER= 1
HISTORY_WRT_FREQ_INNER= 1
OUTPUT_WRT_FREQ= 1000
WRT_PERFORMANCE= YES
WRT_AD_STATISTICS= YES
WRT_RESTART_OVERWRITE= YES
WRT_SURFACE_OVERWRITE= YES
WRT_VOLUME_OVERWRITE= YES
WRT_FORCES_BREAKDOWN= YES
%
% ------------------------- INPUT/OUTPUT FILE INFORMATION --------------------------%
%
OUTPUT_PRECISION= 16
TABULAR_FORMAT= CSV

MESH_FILENAME= ../../CRMHL_Wingbody_1v.su2
MESH_FORMAT= SU2
MESH_OUT_FILENAME= mesh_out.su2
SOLUTION_FILENAME= restart
RESTART_FILENAME= restart
VOLUME_FILENAME= flow
SURFACE_FILENAME= surface_flow
READ_BINARY_RESTART= YES
REORIENT_ELEMENTS= YES
OUTPUT_FILES= (RESTART, PARAVIEW, SURFACE_PARAVIEW, PARAVIEW_MULTIBLOCK)


